K 10
svn:author
V 6
brlcad
K 8
svn:date
V 27
2015-06-04T20:09:48.012062Z
K 7
svn:log
V 45
import geometry from ls-dyna .k keyword files
END
