K 10
svn:author
V 6
brlcad
K 8
svn:date
V 27
2012-02-22T20:57:22.983523Z
K 7
svn:log
V 31
ls-dyna importer would be cool.
END
